Trying to set up GEOS-Chem on Amazon EC2 cloud computing platform
