Trying to set up GEOS-Chem on Amazon EC2 cloud computing platform
Note for myself. Not for users

# === for the latest v11-02-Dev
for source code:
$git clone https://bitbucket.org/gcst/gc_bleeding_edge.git
$git checkout Dev
$make MET=geos-fp GRID=4x5
It compiles smoothly

for run directory:
$git clone https://bitbucket.org/gcst/ut_bleeding_edge.git
$git checkout Dev

modify CopyRunDirs.input:
DATA_ROOT      : /home/ubuntu/gcdata/ExtData
UNIT_TEST_ROOT : /home/ubuntu/GCv11-02/ut_bleeding_edge
COPY_PATH      : /home/ubuntu/GCv11-02/

It runs until reading data

# === for the public-release v11-01
To compile with gfortran-6:
in Makefile_header.mk, change
ifeq ($(COMPILER),gfortran)
to
ifeq ($(COMPILER),gfortran-6)

But there's still some error

# === download HEMCO data for GCv11
$git clone https://bitbucket.org/gcst/hemco_data_download.git

Modify hemcoDataDownload.rc:
Your HEMCO data path   | /home/ubuntu/gcdata/HEMCO
comment out
#NEI2011 regional anthro/biof  | $ROOT/NEI2011/v2015-03
to save space

run with
$nohup ./hemcoDataDownload.pl &

In HEMCO_Config.rc turn off NEI2011

also turn off those new data set that are not downloaded by default 
POET
DECAYING_PLANTS 

Transfer the missing seaflux data from Odyssey:
/net/seasasfs01/srv/export/seasasfs01/share_root/gcgrid/gcdata/ExtData/HEMCO/ALD2
